/*--------------------------------*- C++ -*----------------------------------*\
  =========                 |
  \\      /  F ield         | OpenFOAM: The Open Source CFD Toolbox
   \\    /   O peration     | Website:  https://openfoam.org
    \\  /    A nd           | Version:  7
     \\/     M anipulation  |
\*---------------------------------------------------------------------------*/
FoamFile
{
    version     2.0;
    format      ascii;
    class       dictionary;
    location    "constant";
    object      transportProperties;
}
// * * * * * * * * * * * * * * * * * * * * * * * * * * * * * * * * * * * * * //

phases (water);

water
{
    phaseType       blackoil;
    incompressible  true;
    FVFModel        tabularFVFvsPressure;
    FVFData
    {
        file              "FVF.dat";
        interpolationType stepped;
    }
    rhoSc           rhoSc [ 1 -3 0 0 0 0 0 ] 1;
    mu0             mu0 [ 1 -3 0 0 0 0 0 ] 1e-5;
}

// ************************************************************************* //
