/*--------------------------------*- C++ -*----------------------------------*\
  =========                |
  \      /  F ield         | OpenFOAM: The Open Source CFD Toolbox
   \    /   O peration     | Website:  https://openfoam.org
    \  /    A nd           | Version:  7
     \/     M anipulation  |
  \*---------------------------------------------------------------------------*/
FoamFile
{
  version     2.0;
  format      ascii;
  class       dictionary;
  location    "constant";
  object      transportProperties;
}
// * * * * * * * * * * * * * * * * * * * * * * * * * * * * * * * * * * * * * //

phases (water oil);

rock
{
    incompressibe true;
    compressibility [-1 1 2 0 0 0 0] 1e-6;
    porosity   [0 0 0 0 0 0 0] 0.3;
    permeability [0 2 0 0 0 0 0] 1e-14;
}


water
{
    phaseType       blackoil;
    incompressible  true;
    rhoSc           rhoSc [ 1 -3 0 0 0 0 0 ] 1e3;
    mu0             mu0 [ 1 -1 -1 0 0 0 0 ] 1e-3;
}
	
oil
{
    phaseType       blackoil;
    incompressible  true;
    rhoSc           rhoSc [ 1 -3 0 0 0 0 0 ] 800;
    mu0             mu0 [ 1 -1 -1 0 0 0 0 ] 5e-3;
}

krModel<water,oil>
{
    type BrooksCorey;

    water.alphaIrr 0.2;
    //water.krMax    0.8;

    oil.alphaRes   0.2;
    //oil.krMax      0.8;

    //water.m        2;
    //oil.m          1;
}

pcModel<water,oil>
{
    type            tabular;
    pcData
    {
        file            "pc.data";
    }
}

// ************************************************************************* //
