/*--------------------------------*- C++ -*----------------------------------*\
  =========                 |
  \\      /  F ield         | OpenFOAM: The Open Source CFD Toolbox
   \\    /   O peration     | Website:  https://openfoam.org
    \\  /    A nd           | Version:  7
     \\/     M anipulation  |
\*---------------------------------------------------------------------------*/
FoamFile
{
    version     2.0;
    format      ascii;
    class       dictionary;
    object      setFieldsDict;
}
// * * * * * * * * * * * * * * * * * * * * * * * * * * * * * * * * * * * * * //

defaultFieldValues
(
    volScalarFieldValue rock.permeability 10e-10
);

regions
(
    boxToCell
    {
        box     (0 6 0) (15 10 1);
        fieldValues
        (
            volScalarFieldValue rock.permeability 20e-10
        );
    }
    boxToCell
    {
        box     (0 0 0) (10 6 1);
        fieldValues
        (
            volScalarFieldValue rock.permeability 1e-10
        );
    }
    boxToCell
    {
        box     (7 0 0) (20 3 1);
        fieldValues
        (
            volScalarFieldValue rock.permeability 50e-10
        );
    }
    boxToCell
    {
        box     (13 4 0) (22 8 1);
        fieldValues
        (
            volScalarFieldValue rock.permeability 5e-10
        );
    }
);


// ************************************************************************* //
