/*--------------------------------*- C++ -*----------------------------------*\
  =========                |
  \      /  F ield         | OpenFOAM: The Open Source CFD Toolbox
   \    /   O peration     | Website:  https://openfoam.org
    \  /    A nd           | Version:  7
     \/     M anipulation  |
\*---------------------------------------------------------------------------*/
FoamFile
{
    version     2.0;
    format      ascii;
    class       dictionary;
    object      blockMeshDict;
}
// * * * * * * * * * * * * * * * * * * * * * * * * * * * * * * * * * * * * * //

vertices        
(
    (0 0 0)
    (1 0 0)
    (1 12 0)
    (0 12 0)
    (0 0 1)
    (1 0 1)
    (1 12 1)
    (0 12 1)
);

blocks          
(
    hex (0 1 2 3 4 5 6 7) (1 400 1) simpleGrading (1 1 1)
);

edges           
(
);

boundary         
(
    inlet
    {
        type patch;
        faces
        (
            (3 7 6 2)
        );
    }

    outlet
    {
        type patch;
        faces
        (
            (1 5 4 0)
        );
    }

    frontAndBack
    {
        type empty;
        faces
        (
	        (0 4 7 3)
            (0 3 2 1)
	        (2 6 5 1)
            (4 5 6 7)
        );
    }
);

mergePatchPairs 
(
);

// ************************************************************************* //
