/*--------------------------------*- C++ -*----------------------------------*\
  =========                |
  \      /  F ield         | OpenFOAM: The Open Source CFD Toolbox
   \    /   O peration     | Website:  https://openfoam.org
    \  /    A nd           | Version:  7
     \/     M anipulation  |
\*---------------------------------------------------------------------------*/
FoamFile
{
    version     2.0;
    format      ascii;
    class       dictionary;
    location    "system";
    object      fvSolution;
}
// * * * * * * * * * * * * * * * * * * * * * * * * * * * * * * * * * * * * * //

coupledSolvers
{
  water.alpha-p
  {
      // Take default configs for coupled solver
  }
}

solvers
{
    "(p|water.alpha)"
    {
        solver              PCG;
        preconditioner      DIC;
        preconditioner
        {
            preconditioner  DIC;
        }
        tolerance       1e-7;
        relTol          0.001;
        maxIter         1000;
    }

}

IMPES
{
    type  CoatsNo;
    dSMax 1.00;

    pRefCell 0;
    pRefValue 0;
}

// The following are for the coupled solver
pRefCell 0;
pRefValue 0;

// ************************************************************************* //
