/*--------------------------------*- C++ -*----------------------------------*\
  =========                 |
  \\      /  F ield         | OpenFOAM: The Open Source CFD Toolbox
   \\    /   O peration     | Website:  https://openfoam.org
    \\  /    A nd           | Version:  7
     \\/     M anipulation  |
\*---------------------------------------------------------------------------*/
FoamFile
{
    version     2.0;
    format      ascii;
    class       dictionary;
    location    "constant";
    object      transportProperties;
}
// * * * * * * * * * * * * * * * * * * * * * * * * * * * * * * * * * * * * * //

wellModel           Peaceman;
wellSourceConfigs
{
    wellSourceType  $wellModel;
}

wells
(
    INJE0
    {
        orientation         vertical;
        operationMode       injection;
        injectedPhase       water;
        radius              0.3;
        skin                2;
        perforations
        (
            labelToCell { value (399); }
        );
        imposedDrives
        (
            //BHP
            //{
            //    file    "BHP";
            //    interpolationType stepped;
            //}
            flowRate
            {
                phase "water";
                file  "water.rate";
                interpolationType stepped;
            }
        );
    }
);

// ************************************************************************* //
